[General]

network = simplenetwork
sim-time-limit = 10s#75s
record-eventlog=false
cmdenv-express-mode = true
cmdenv-redirect-output = false
cmdenv-output-file = dctcpLog.txt
**.client*.tcp.conn-8.cmdenv-log-level = detail
cmdenv-log-prefix = %t | %m |

cmdenv-event-banners = false
**.cmdenv-log-level = off

**.**.tcp.conn-*.cwnd:vector.vector-recording = true
**.**.tcp.conn-*.u:vector.vector-recording = true
**.**.tcp.conn-*.U:vector.vector-recording = true
**.**.tcp.conn-*.additiveIncrease:vector.vector-recording = true
**.**.tcp.conn-*.sharingFlows:vector.vector-recording = true
**.**.tcp.conn-*.tau:vector.vector-recording = true
**.**.tcp.conn-*.txRate:vector.vector-recording = true
**.**.tcp.conn-*.rtt:vector.vector-recording = true
**.**.tcp.conn-*.lossRecovery:vector.vector-recording = true
**.**.tcp.conn-*.srtt:vector.vector-recording = true
**.**.queue.queueLength:vector.vector-recording = true
**.**.queue.queueingTime:vector.vector-recording = true
**.**.queue.avgRtt:vector.vector-recording = true
**.server*.app[*].**:vector.vector-recording = true
**.scalar-recording=false
**.vector-recording=false
**.bin-recording=false

#cmdenv-express-mode = false
#cmdenv-log-prefix = %t | %m |
#
#cmdenv-event-banners = false
#**.cmdenv-log-level = off

#**.ppp[*].queue.typename = "DctcpMarkingQueue"
#**.ppp[*].queue.dctcpMarker.useEcn = true
#**.ppp[*].queue.dctcpMarker.k = 40
#**.ppp[*].queue.dctcpMarker.packetCapacity = 100

#**.router*.ppp[*].queue.typename           = "RedDropperQueue"
#**.router*.ppp[*].queue.red.useEcn         = true
#**.router*.ppp[*].queue.red.wq             = 1.0
#**.router*.ppp[*].queue.red.minth          = 0
#**.router*.ppp[*].queue.red.maxth          = 40
#**.router*.ppp[*].queue.red.maxp           = 1.0
#**.router*.ppp[*].queue.red.pkrate         = 833.3333
#**.router*.ppp[*].queue.red.mark           = 1
#**.router*.ppp[*].queue.red.packetCapacity = 100

#**.client[*].app[1..50].startTime = 0s
#**.client[*].app[1..50].numPacketsToSend = 1000
#**.client[*].app[1..50].statistic-recording= false

#*.scenarioManager.script = xmldoc("pathChange.xml")
**.server*.app[*].*.thrMeasurementInterval = 0.3s
**.server*.app[*].*.thrMeasurementBandwidth = 125000000

**.tcp.typename = "Hpcc"
**.tcp.tcpAlgorithmClass = "HpccFlavour"
**.tcp.advertisedWindow = 200000000
**.tcp.windowScalingSupport = true
**.tcp.windowScalingFactor = -1
**.tcp.increasedIWEnabled = true
**.tcp.delayedAcksEnabled = false
**.tcp.ecnWillingness = false
**.tcp.nagleEnabled = true
**.tcp.stopOperationTimeout = 4000s
**.tcp.mss = 1460
**.tcp.sackSupport = true
**.client1.tcp.bandwidth = 125000000 #bytes
**.client1.tcp.basePropagationRTT = 0.005s
**.client2.tcp.bandwidth = 125000000 #bytes
**.client2.tcp.basePropagationRTT = 0.1s
**.tcp.initialSsthresh = 0
**.client*.numApps = 1
**.client*.app[*].typename  = "HpccSessionApp"

**.client1.app[0].connectAddress = "server1"
*.client1.app[0].sendBytes = 2Gb

*.client1.app[0].connectAddress = "server1"
*.client2.app[0].connectAddress = "server2"
*.client1.app[0].tOpen = 0s
*.client2.app[0].tOpen = 0.1s
*.client1.app[0].tSend = 0s
*.client2.app[0].tSend = 0.1s
*.client1.app[0].tClose = -1s
*.client*.app[0].sendBytes = 2GB
*.client*.app[0].dataTransferMode = "bytecount"
*.client*.app[0].statistic-recording = true

**.server*.numApps = 1
**.server*.app[*].typename  = "TcpSinkApp"
**.server*.app[*].serverThreadModuleType = "hpcc.applications.tcpapp.TcpThroughputSinkAppThread"

**.ppp[*].queue.typename = "IntQueue"
**.ppp[*].queue.packetCapacity = 8550

[Config maxRtt100exp1]
extends = General

**.tcp.additiveIncreasePercent = 0.01

[Config maxRtt100exp2]
extends = General

**.tcp.additiveIncreasePercent = 0.05

[Config maxRtt100exp3]
extends = General

**.tcp.additiveIncreasePercent = 0.1

[Config maxRtt100exp4]
extends = General

**.tcp.additiveIncreasePercent = 0.25

[Config maxRtt100exp5]
extends = General

**.tcp.additiveIncreasePercent = 0.5

[Config maxRtt100exp6]
extends = General

**.tcp.additiveIncreasePercent = 0.75

[Config maxRtt100exp7]
extends = General

**.tcp.additiveIncreasePercent = 0.9
